Circuit: * C:\Users\Gaming\Documents\TeamPhantom\Sensors\Temp_Amp_01\Simulation\Temp_Sens_.asc

WARNING: Node NC_02 is floating.

WARNING: Less than two connections to node NC_01.  This node is used by V2.
WARNING: Less than two connections to node NC_02.  This node is used by V2.
WARNING: Less than two connections to node N001.  This node is used by V3.
Direct Newton iteration failed to find .op point.  (Use ".option noopiter" to skip.)
Starting Gmin stepping
Gmin = 10
Gmin = 1.07374
Gmin = 0.115292
Gmin = 0.0123794
Gmin = 0.00132923
Gmin = 0.000142725
Gmin = 1.5325e-005
Gmin = 1.6455e-006
Gmin = 1.76685e-007
Gmin = 1.89714e-008
Gmin = 2.03704e-009
Gmin = 2.18725e-010
Gmin = 2.34854e-011
Gmin = 2.52173e-012
Gmin = 2.70769e-013
Gmin = 0
Gmin stepping succeeded in finding the operating point.


Date: Wed Feb 10 02:55:03 2021
Total elapsed time: 0.066 seconds.

tnom = 27
temp = 27
method = modified trap
totiter = 2549
traniter = 2164
tranpoints = 1083
accept = 1083
rejected = 0
matrix size = 21
fillins = 11
solver = Normal
Matrix Compiler1: 1.24 KB object code size  0.3/0.3/[0.2]
Matrix Compiler2: off  [0.2]/0.3/0.2

